<?xml version="1.0" encoding="UTF-8"?>

<!-- generated on 2024-06-04 01:35:28 by Eclipse SUMO netedit Version 1.20.0
<configuration xmlns:xsi="http://www.w3.org/2001/XMLSchema-instance" xsi:noNamespaceSchemaLocation="http://sumo.dlr.de/xsd/neteditConfiguration.xsd">

    <input>
        <sumocfg-file value="v1.sumocfg"/>
        <additional-files value=""/>
        <route-files value="v8.rou.xml"/>
        <sumo-net-file value="v8.net.xml"/>
    </input>

    <output>
        <output-file value="v8.net.xml"/>
    </output>

    <processing>
        <geometry.min-radius.fix.railways value="false"/>
        <geometry.max-grade.fix value="false"/>
        <offset.disable-normalization value="true"/>
        <lefthand value="0"/>
    </processing>

    <junctions>
        <no-turnarounds value="true"/>
        <junctions.corner-detail value="5"/>
        <junctions.limit-turn-speed value="5.50"/>
        <rectangular-lane-cut value="0"/>
    </junctions>

    <pedestrian>
        <walkingareas value="0"/>
    </pedestrian>

    <netedit>
        <ignore.routeelements value="false"/>
    </netedit>

</configuration>
-->

<net version="1.20" junctionCornerDetail="5" limitTurnSpeed="5.50" xmlns:xsi="http://www.w3.org/2001/XMLSchema-instance" xsi:noNamespaceSchemaLocation="http://sumo.dlr.de/xsd/net_file.xsd">

    <location netOffset="0.00,0.00" convBoundary="-180.44,-316.03,233.39,188.67" origBoundary="-10000000000.00,-10000000000.00,10000000000.00,10000000000.00" projParameter="!"/>

    <edge id=":J1_0" function="internal">
        <lane id=":J1_0_0" index="0" speed="9.56" length="19.59" shape="25.03,-194.98 22.73,-193.75 21.07,-190.39 20.04,-184.89 19.65,-177.26"/>
        <lane id=":J1_0_1" index="1" speed="10.62" length="24.33" shape="24.88,-198.19 21.27,-196.69 18.65,-192.71 17.02,-186.24 16.39,-177.29"/>
        <lane id=":J1_0_2" index="2" speed="11.85" length="30.83" shape="24.66,-202.86 19.48,-201.03 15.75,-196.16 13.46,-188.26 12.61,-177.32"/>
    </edge>
    <edge id=":J1_3" function="internal">
        <lane id=":J1_3_0" index="0" speed="8.26" length="16.61" shape="24.51,-206.07 18.30,-206.14 13.93,-207.09 11.40,-208.92 10.69,-211.63"/>
    </edge>
    <edge id=":J1_4" function="internal">
        <lane id=":J1_4_0" index="0" speed="13.89" length="34.14" shape="17.08,-211.19 17.21,-203.79 18.15,-196.11 19.20,-187.49 19.65,-177.26"/>
        <lane id=":J1_4_1" index="1" speed="13.89" length="34.14" shape="13.89,-211.41 14.02,-203.98 14.96,-196.23 15.99,-187.54 16.39,-177.29"/>
        <lane id=":J1_4_2" index="2" speed="13.89" length="34.14" shape="13.89,-211.41 12.61,-177.32"/>
    </edge>
    <edge id=":J1_7" function="internal">
        <lane id=":J1_7_0" index="0" speed="13.89" length="34.41" shape="6.03,-177.37 7.50,-211.85"/>
        <lane id=":J1_7_1" index="1" speed="13.89" length="34.41" shape="9.26,-177.34 10.69,-211.63"/>
    </edge>
    <edge id=":J12_0" function="internal">
        <lane id=":J12_0_0" index="0" disallow="pedestrian" speed="5.99" length="7.14" shape="34.66,-6.38 34.43,-8.78 33.83,-10.52 32.84,-11.59 31.47,-12.00"/>
    </edge>
    <edge id=":J12_1" function="internal">
        <lane id=":J12_1_0" index="0" disallow="pedestrian" speed="13.89" length="6.58" shape="38.04,-11.73 31.47,-12.00"/>
    </edge>
    <edge id=":J4_0" function="internal">
        <lane id=":J4_0_0" index="0" speed="6.13" length="7.89" shape="2.41,-6.98 2.16,-9.63 1.47,-11.52 0.34,-12.65 -1.24,-13.02"/>
    </edge>
    <edge id=":J4_1" function="internal">
        <lane id=":J4_1_0" index="0" speed="13.89" length="34.39" shape="2.41,-6.98 4.50,-41.34"/>
        <lane id=":J4_1_1" index="1" speed="13.89" length="34.39" shape="5.61,-7.00 7.68,-41.30"/>
    </edge>
    <edge id=":J4_3" function="internal">
        <lane id=":J4_3_0" index="0" speed="8.63" length="17.04" shape="9.17,-7.02 9.88,-11.07 12.09,-13.94 15.80,-15.61 21.01,-16.10"/>
    </edge>
    <edge id=":J4_4" function="internal">
        <lane id=":J4_4_0" index="0" disallow="pedestrian" speed="6.06" length="8.02" shape="20.94,-12.54 19.03,-12.28 17.68,-11.29 16.87,-9.55 16.61,-7.07"/>
    </edge>
    <edge id=":J4_5" function="internal">
        <lane id=":J4_5_0" index="0" disallow="pedestrian" speed="13.89" length="22.19" shape="20.94,-12.54 -1.24,-13.02"/>
    </edge>
    <edge id=":J4_6" function="internal">
        <lane id=":J4_6_0" index="0" disallow="pedestrian" speed="12.45" length="6.01" shape="20.94,-12.54 15.27,-14.51"/>
    </edge>
    <edge id=":J4_14" function="internal">
        <lane id=":J4_14_0" index="0" disallow="pedestrian" speed="12.45" length="28.73" shape="15.27,-14.51 15.02,-14.60 10.83,-20.08 8.38,-28.98 7.68,-41.30"/>
    </edge>
    <edge id=":J4_7" function="internal">
        <lane id=":J4_7_0" index="0" speed="10.51" length="25.79" shape="18.50,-41.18 18.23,-30.23 18.56,-22.40 19.49,-17.69 21.01,-16.10"/>
    </edge>
    <edge id=":J4_8" function="internal">
        <lane id=":J4_8_0" index="0" speed="13.89" length="34.18" shape="18.50,-41.18 16.61,-7.07"/>
        <lane id=":J4_8_1" index="1" speed="13.89" length="34.18" shape="14.63,-41.22 13.56,-7.05"/>
    </edge>
    <edge id=":J4_10" function="internal">
        <lane id=":J4_10_0" index="0" speed="12.16" length="33.70" shape="11.24,-41.26 10.35,-28.93 7.98,-20.12 4.12,-14.81 -1.24,-13.02"/>
    </edge>
    <edge id=":J4_11" function="internal">
        <lane id=":J4_11_0" index="0" disallow="pedestrian" speed="10.28" length="23.81" shape="-1.28,-19.42 1.16,-20.80 2.94,-24.92 4.05,-31.76 4.50,-41.34"/>
    </edge>
    <edge id=":J4_12" function="internal">
        <lane id=":J4_12_0" index="0" disallow="pedestrian" speed="13.89" length="22.58" shape="-1.28,-19.42 6.26,-18.94 12.22,-17.82 17.00,-16.67 21.01,-16.10"/>
    </edge>
    <edge id=":J4_13" function="internal">
        <lane id=":J4_13_0" index="0" disallow="pedestrian" speed="9.28" length="7.34" shape="-1.26,-16.22 5.24,-15.68 6.02,-15.39"/>
    </edge>
    <edge id=":J4_15" function="internal">
        <lane id=":J4_15_0" index="0" disallow="pedestrian" speed="9.28" length="12.26" shape="6.02,-15.39 9.88,-13.97 12.65,-11.10 13.56,-7.05"/>
    </edge>

    <edge id="est" from="J12" to="J4" priority="-1">
        <lane id="est_0" index="0" allow="pedestrian" speed="13.89" length="10.49" width="2.00" shape="31.33,-9.40 20.90,-9.94"/>
        <lane id="est_1" index="1" disallow="pedestrian" speed="13.89" length="10.49" shape="31.47,-12.00 20.94,-12.54"/>
    </edge>
    <edge id="est2" from="J5" to="J1" priority="-1">
        <lane id="est2_0" index="0" speed="13.89" length="164.12" customShape="1" shape="188.87,-205.05 25.03,-194.98"/>
        <lane id="est2_1" index="1" speed="13.89" length="164.12" customShape="1" shape="188.70,-208.24 24.88,-198.19"/>
        <lane id="est2_2" index="2" speed="13.89" length="164.12" customShape="1" shape="188.57,-211.44 24.66,-202.86"/>
        <lane id="est2_3" index="3" speed="13.89" length="164.12" customShape="1" shape="188.37,-214.63 24.51,-206.07"/>
    </edge>
    <edge id="estB" from="J11" to="J12" priority="-1">
        <lane id="estB_0" index="0" allow="pedestrian" speed="13.89" length="195.34" width="2.00" shape="233.33,-6.49 38.01,-9.13"/>
        <lane id="estB_1" index="1" disallow="pedestrian" speed="13.89" length="195.34" shape="233.37,-9.09 38.04,-11.73"/>
    </edge>
    <edge id="est_go" from="J4" to="J11" priority="-1">
        <lane id="est_go_0" index="0" speed="13.89" length="212.44" shape="21.01,-16.10 233.42,-12.29"/>
    </edge>
    <edge id="est_nourth" from="J13" to="J12" priority="-1">
        <lane id="est_nourth_0" index="0" speed="13.89" length="113.89" shape="35.91,107.50 34.66,-6.38"/>
    </edge>
    <edge id="nord" from="J0" to="J4" priority="-1">
        <lane id="nord_0" index="0" speed="13.89" length="195.72" shape="3.83,188.74 2.41,-6.98"/>
        <lane id="nord_1" index="1" speed="13.89" length="195.72" shape="7.03,188.71 5.61,-7.00"/>
        <lane id="nord_2" index="2" speed="13.89" length="195.72" customShape="1" shape="10.97,188.68 9.17,-7.02"/>
    </edge>
    <edge id="nord_go" from="J4" to="J0" priority="-1" shape="10.35,-14.69 14.14,121.56 10.99,104.20 11.83,188.67">
        <lane id="nord_go_0" index="0" speed="13.89" length="195.71" customShape="1" shape="16.61,-7.07 17.85,188.63"/>
        <lane id="nord_go_1" index="1" speed="13.89" length="195.71" customShape="1" shape="13.56,-7.05 13.51,5.01 14.70,188.65"/>
    </edge>
    <edge id="ouest" from="J3" to="J4" priority="-1">
        <lane id="ouest_0" index="0" allow="pedestrian" speed="13.89" length="179.20" width="2.00" shape="-180.49,-20.92 -1.29,-22.02"/>
        <lane id="ouest_1" index="1" disallow="pedestrian" speed="13.89" length="179.20" shape="-180.47,-18.32 -1.28,-19.42"/>
        <lane id="ouest_2" index="2" disallow="pedestrian" speed="13.89" length="179.20" shape="-180.45,-15.12 -1.26,-16.22"/>
    </edge>
    <edge id="ouest_go" from="J4" to="J3" priority="-1">
        <lane id="ouest_go_0" index="0" speed="13.89" length="179.20" shape="-1.24,-13.02 -180.43,-11.92"/>
    </edge>
    <edge id="sud" from="J1" to="J4" priority="-1" shape="11.88,-205.54 10.58,-42.98 10.35,-14.69">
        <lane id="sud_0" index="0" speed="13.89" length="136.07" customShape="1" shape="19.65,-177.26 18.58,-42.92 18.50,-41.18"/>
        <lane id="sud_1" index="1" speed="13.89" length="136.07" customShape="1" shape="16.39,-177.29 14.63,-41.22"/>
        <lane id="sud_2" index="2" speed="13.89" length="136.07" customShape="1" shape="12.61,-177.32 11.24,-41.26"/>
    </edge>
    <edge id="sud2" from="J6" to="J1" priority="-1">
        <lane id="sud2_0" index="0" speed="13.89" length="104.76" shape="24.26,-315.70 17.08,-211.19"/>
        <lane id="sud2_1" index="1" speed="13.89" length="104.76" shape="21.07,-315.92 13.89,-211.41"/>
    </edge>
    <edge id="sud2_go" from="J1" to="J6" priority="-1">
        <lane id="sud2_go_0" index="0" speed="13.89" length="104.76" shape="7.50,-211.85 14.68,-316.36"/>
        <lane id="sud2_go_1" index="1" speed="13.89" length="104.76" shape="10.69,-211.63 17.87,-316.14"/>
    </edge>
    <edge id="sud_go" from="J4" to="J1" priority="-1" shape="10.35,-14.69 9.25,-36.37 11.88,-205.54">
        <lane id="sud_go_0" index="0" speed="13.89" length="136.04" customShape="1" shape="4.50,-41.34 6.03,-177.37"/>
        <lane id="sud_go_1" index="1" speed="13.89" length="136.04" customShape="1" shape="7.68,-41.30 9.26,-177.34"/>
    </edge>

    <tlLogic id="J1" type="static" programID="0" offset="0">
        <phase duration="420000" state="rrrrGGGGG"/>
        <phase duration="300000"  state="rrrryyyyy"/>
        <phase duration="420000" state="GGGGrrrrr"/>
        <phase duration="300000"  state="yyyyrrrrr"/>
    </tlLogic>
    <tlLogic id="J4" type="static" programID="0" offset="0">
        <phase duration="33000" state="GGGrrrrGGGrrrr"/>
        <phase duration="30000" state="yyyrrrryyyrrrr"/>
        <phase duration="10000" state="rrrGrrrrrrGrrr"/>
        <phase duration="3000" state="rrryrrrrrryrrr"/>
        <phase duration="33000" state="rrrrGGgrrrrGGg"/>
        <phase duration="3000" state="rrrryyyrrrryyy"/>
    </tlLogic>

    <junction id="J0" type="dead_end" x="11.83" y="188.67" incLanes="nord_go_0 nord_go_1" intLanes="" shape="12.57,188.66 2.23,188.76 19.45,188.62 13.10,188.66"/>
    <junction id="J1" type="traffic_light" x="11.88" y="-205.54" incLanes="est2_0 est2_1 est2_2 est2_3 sud2_0 sud2_1 sud_go_0 sud_go_1" intLanes=":J1_0_0 :J1_0_1 :J1_0_2 :J1_3_0 :J1_4_0 :J1_4_1 :J1_4_2 :J1_7_0 :J1_7_1" shape="25.11,-193.38 24.44,-207.67 21.12,-207.91 19.99,-208.36 19.20,-209.04 18.76,-209.95 18.68,-211.08 5.91,-211.96 4.43,-177.38 21.25,-177.25 21.39,-182.11 21.74,-186.11 22.28,-189.23 23.02,-191.49 23.96,-192.87">
        <request index="0" response="001110000" foes="001110000" cont="0"/>
        <request index="1" response="001110000" foes="001110000" cont="0"/>
        <request index="2" response="001110000" foes="001110000" cont="0"/>
        <request index="3" response="111110000" foes="111110000" cont="0"/>
        <request index="4" response="000000000" foes="000001111" cont="0"/>
        <request index="5" response="000000000" foes="000001111" cont="0"/>
        <request index="6" response="000000000" foes="000001111" cont="0"/>
        <request index="7" response="000000000" foes="000001000" cont="0"/>
        <request index="8" response="000000000" foes="000001000" cont="0"/>
    </junction>
    <junction id="J11" type="dead_end" x="233.39" y="-10.69" incLanes="est_go_0" intLanes="" shape="233.39,-10.69 233.32,-5.49 233.45,-13.89"/>
    <junction id="J12" type="priority" x="36.18" y="-13.36" incLanes="est_nourth_0 estB_0 estB_1" intLanes=":J12_0_0 :J12_1_0" shape="33.06,-6.37 36.26,-6.40 36.44,-7.37 36.68,-7.71 37.02,-7.95 37.46,-8.09 37.99,-8.13 38.07,-13.33 31.55,-13.60 31.28,-8.41 32.26,-8.14 32.60,-7.85 32.85,-7.46 33.00,-6.96">
        <request index="0" response="10" foes="10" cont="0"/>
        <request index="1" response="00" foes="01" cont="0"/>
    </junction>
    <junction id="J13" type="dead_end" x="37.51" y="107.48" incLanes="" intLanes="" shape="37.51,107.48 34.31,107.52"/>
    <junction id="J3" type="dead_end" x="-180.44" y="-13.52" incLanes="ouest_go_0" intLanes="" shape="-180.44,-13.52 -180.42,-10.32 -180.44,-13.52"/>
    <junction id="J4" type="traffic_light" x="10.35" y="-14.69" incLanes="nord_0 nord_1 nord_2 est_0 est_1 sud_0 sud_1 sud_2 ouest_0 ouest_1 ouest_2" intLanes=":J4_0_0 :J4_1_0 :J4_1_1 :J4_3_0 :J4_4_0 :J4_5_0 :J4_14_0 :J4_7_0 :J4_8_0 :J4_8_1 :J4_10_0 :J4_11_0 :J4_12_0 :J4_15_0" shape="0.81,-6.97 18.21,-7.08 18.50,-8.17 18.87,-8.54 19.39,-8.80 20.06,-8.93 20.88,-8.94 21.04,-17.70 20.05,-20.32 19.81,-23.58 19.73,-28.14 19.83,-34.00 20.10,-41.16 2.91,-41.36 2.73,-35.76 2.35,-31.18 1.75,-27.62 0.95,-25.07 -0.07,-23.53 -1.30,-23.02 -1.23,-11.42 -0.11,-10.93 0.28,-10.31 0.57,-9.45 0.74,-8.33">
        <request index="0"  response="00000000000000" foes="00010000100000" cont="0"/>
        <request index="1"  response="10000001000000" foes="11110001100000" cont="0"/>
        <request index="2"  response="10000001000000" foes="11110001100000" cont="0"/>
        <request index="3"  response="10001111000000" foes="11001111100000" cont="0"/>
        <request index="4"  response="00001100000000" foes="00001100000000" cont="0"/>
        <request index="5"  response="00011100001111" foes="10011100001111" cont="0"/>
        <request index="6"  response="01011100001110" foes="01011100001110" cont="1"/>
        <request index="7"  response="00000000000000" foes="01000000001000" cont="0"/>
        <request index="8"  response="10000001000000" foes="11000001111000" cont="0"/>
        <request index="9"  response="10000001000000" foes="11000001111000" cont="0"/>
        <request index="10" response="10000001000111" foes="11000001100111" cont="0"/>
        <request index="11" response="00000000000110" foes="00000000000110" cont="0"/>
        <request index="12" response="00011110001110" foes="00011111001110" cont="0"/>
        <request index="13" response="00011100101110" foes="00011100101110" cont="1"/>
    </junction>
    <junction id="J5" type="dead_end" x="188.28" y="-216.23" incLanes="" intLanes="" shape="188.28,-216.23 188.95,-203.45"/>
    <junction id="J6" type="dead_end" x="19.47" y="-316.03" incLanes="sud2_go_0 sud2_go_1" intLanes="" shape="19.47,-316.03 13.09,-316.47 19.47,-316.03"/>

    <junction id=":J4_14_0" type="internal" x="15.27" y="-14.51" incLanes=":J4_6_0 ouest_1" intLanes=":J4_1_0 :J4_1_1 :J4_3_0 :J4_8_0 :J4_8_1 :J4_10_0 :J4_11_0 :J4_12_0"/>
    <junction id=":J4_15_0" type="internal" x="6.02" y="-15.39" incLanes=":J4_13_0 est_1" intLanes=":J4_1_0 :J4_1_1 :J4_3_0 :J4_4_0 :J4_5_0 :J4_8_0 :J4_8_1 :J4_10_0"/>

    <connection from="est" to="nord_go" fromLane="1" toLane="0" via=":J4_4_0" tl="J4" linkIndex="4" dir="r" state="o"/>
    <connection from="est" to="ouest_go" fromLane="1" toLane="0" via=":J4_5_0" tl="J4" linkIndex="5" dir="s" state="o"/>
    <connection from="est" to="sud_go" fromLane="1" toLane="1" via=":J4_6_0" tl="J4" linkIndex="6" dir="l" state="o"/>
    <connection from="est2" to="sud" fromLane="0" toLane="0" via=":J1_0_0" tl="J1" linkIndex="0" dir="r" state="o"/>
    <connection from="est2" to="sud" fromLane="1" toLane="1" via=":J1_0_1" tl="J1" linkIndex="1" dir="r" state="o"/>
    <connection from="est2" to="sud" fromLane="2" toLane="2" via=":J1_0_2" tl="J1" linkIndex="2" dir="r" state="o"/>
    <connection from="est2" to="sud2_go" fromLane="3" toLane="1" via=":J1_3_0" tl="J1" linkIndex="3" dir="l" state="o"/>
    <connection from="estB" to="est" fromLane="1" toLane="1" via=":J12_1_0" dir="s" state="M"/>
    <connection from="est_nourth" to="est" fromLane="0" toLane="1" via=":J12_0_0" dir="r" state="m"/>
    <connection from="nord" to="ouest_go" fromLane="0" toLane="0" via=":J4_0_0" tl="J4" linkIndex="0" dir="r" state="O"/>
    <connection from="nord" to="sud_go" fromLane="0" toLane="0" via=":J4_1_0" tl="J4" linkIndex="1" dir="s" state="O"/>
    <connection from="nord" to="sud_go" fromLane="1" toLane="1" via=":J4_1_1" tl="J4" linkIndex="2" dir="s" state="O"/>
    <connection from="nord" to="est_go" fromLane="2" toLane="0" via=":J4_3_0" tl="J4" linkIndex="3" dir="l" state="o"/>
    <connection from="ouest" to="sud_go" fromLane="1" toLane="0" via=":J4_11_0" tl="J4" linkIndex="11" dir="r" state="o"/>
    <connection from="ouest" to="est_go" fromLane="1" toLane="0" via=":J4_12_0" tl="J4" linkIndex="12" dir="s" state="o"/>
    <connection from="ouest" to="nord_go" fromLane="2" toLane="1" via=":J4_13_0" tl="J4" linkIndex="13" dir="l" state="o"/>
    <connection from="sud" to="est_go" fromLane="0" toLane="0" via=":J4_7_0" tl="J4" linkIndex="7" dir="r" state="O"/>
    <connection from="sud" to="nord_go" fromLane="0" toLane="0" via=":J4_8_0" tl="J4" linkIndex="8" dir="s" state="O"/>
    <connection from="sud" to="nord_go" fromLane="1" toLane="1" via=":J4_8_1" tl="J4" linkIndex="9" dir="s" state="O"/>
    <connection from="sud" to="ouest_go" fromLane="2" toLane="0" via=":J4_10_0" tl="J4" linkIndex="10" dir="l" state="o"/>
    <connection from="sud2" to="sud" fromLane="0" toLane="0" via=":J1_4_0" tl="J1" linkIndex="4" dir="s" state="O"/>
    <connection from="sud2" to="sud" fromLane="1" toLane="1" via=":J1_4_1" tl="J1" linkIndex="5" dir="s" state="O"/>
    <connection from="sud2" to="sud" fromLane="1" toLane="2" via=":J1_4_2" tl="J1" linkIndex="6" dir="s" state="O"/>
    <connection from="sud_go" to="sud2_go" fromLane="0" toLane="0" via=":J1_7_0" tl="J1" linkIndex="7" dir="s" state="O"/>
    <connection from="sud_go" to="sud2_go" fromLane="1" toLane="1" via=":J1_7_1" tl="J1" linkIndex="8" dir="s" state="O"/>

    <connection from=":J1_0" to="sud" fromLane="0" toLane="0" dir="r" state="M"/>
    <connection from=":J1_0" to="sud" fromLane="1" toLane="1" dir="r" state="M"/>
    <connection from=":J1_0" to="sud" fromLane="2" toLane="2" dir="r" state="M"/>
    <connection from=":J1_3" to="sud2_go" fromLane="0" toLane="1" dir="l" state="M"/>
    <connection from=":J1_4" to="sud" fromLane="0" toLane="0" dir="s" state="M"/>
    <connection from=":J1_4" to="sud" fromLane="1" toLane="1" dir="s" state="M"/>
    <connection from=":J1_4" to="sud" fromLane="2" toLane="2" dir="s" state="M"/>
    <connection from=":J1_7" to="sud2_go" fromLane="0" toLane="0" dir="s" state="M"/>
    <connection from=":J1_7" to="sud2_go" fromLane="1" toLane="1" dir="s" state="M"/>
    <connection from=":J12_0" to="est" fromLane="0" toLane="1" dir="r" state="M"/>
    <connection from=":J12_1" to="est" fromLane="0" toLane="1" dir="s" state="M"/>
    <connection from=":J4_0" to="ouest_go" fromLane="0" toLane="0" dir="r" state="M"/>
    <connection from=":J4_1" to="sud_go" fromLane="0" toLane="0" dir="s" state="M"/>
    <connection from=":J4_1" to="sud_go" fromLane="1" toLane="1" dir="s" state="M"/>
    <connection from=":J4_3" to="est_go" fromLane="0" toLane="0" dir="l" state="M"/>
    <connection from=":J4_4" to="nord_go" fromLane="0" toLane="0" dir="r" state="M"/>
    <connection from=":J4_5" to="ouest_go" fromLane="0" toLane="0" dir="s" state="M"/>
    <connection from=":J4_6" to="sud_go" fromLane="0" toLane="1" via=":J4_14_0" dir="l" state="m"/>
    <connection from=":J4_14" to="sud_go" fromLane="0" toLane="1" dir="l" state="M"/>
    <connection from=":J4_7" to="est_go" fromLane="0" toLane="0" dir="r" state="M"/>
    <connection from=":J4_8" to="nord_go" fromLane="0" toLane="0" dir="s" state="M"/>
    <connection from=":J4_8" to="nord_go" fromLane="1" toLane="1" dir="s" state="M"/>
    <connection from=":J4_10" to="ouest_go" fromLane="0" toLane="0" dir="l" state="M"/>
    <connection from=":J4_11" to="sud_go" fromLane="0" toLane="0" dir="r" state="M"/>
    <connection from=":J4_12" to="est_go" fromLane="0" toLane="0" dir="s" state="M"/>
    <connection from=":J4_13" to="nord_go" fromLane="0" toLane="1" via=":J4_15_0" dir="l" state="m"/>
    <connection from=":J4_15" to="nord_go" fromLane="0" toLane="1" dir="l" state="M"/>

</net>
